
     RDKit          3D

 43 47  0  0  0  0  0  0  0  0999 V2000
   23.6665   19.0899    5.6506 C   0  0  0  0  0  0  0  0  0  0  0  0
   23.6060   17.9090    6.4230 O   0  0  0  0  0  0  0  0  0  0  0  0
   24.7360   17.4390    7.0320 C   0  0  0  0  0  0  0  0  0  0  0  0
   25.7330   18.2830    7.4390 C   0  0  0  0  0  0  0  0  0  0  0  0
   26.8810   17.7580    8.0620 C   0  0  0  0  0  0  0  0  0  0  0  0
   27.9560   18.5690    8.5110 C   0  0  0  0  0  0  0  0  0  0  0  0
   29.0470   17.9710    9.1140 C   0  0  0  0  0  0  0  0  0  0  0  0
   29.0980   16.6070    9.2810 C   0  0  0  0  0  0  0  0  0  0  0  0
   28.1140   15.8090    8.8750 N   0  0  0  0  0  0  0  0  0  0  0  0
   27.0210   16.3700    8.2750 C   0  0  0  0  0  0  0  0  0  0  0  0
   25.9700   15.5300    7.8410 C   0  0  0  0  0  0  0  0  0  0  0  0
   26.1240   14.1960    8.0560 F   0  0  0  0  0  0  0  0  0  0  0  0
   24.8660   16.0650    7.2390 C   0  0  0  0  0  0  0  0  0  0  0  0
   23.5780   15.0020    6.7110 Cl  0  0  0  0  0  0  0  0  0  0  0  0
   30.0300   19.0530    9.4900 C   0  0  2  0  0  0  0  0  0  0  0  0
   30.6500   18.7640   10.7570 C   0  0  0  0  0  0  0  0  0  0  0  0
   31.1260   19.7230   11.6170 O   0  0  0  0  0  0  0  0  0  0  0  0
   31.2250   21.1060   11.6470 C   0  0  0  0  0  0  0  0  0  0  0  0
   32.1170   21.6080   12.5340 C   0  0  0  0  0  0  0  0  0  0  0  0
   32.2610   22.9920   12.6090 C   0  0  0  0  0  0  0  0  0  0  0  0
   31.4960   23.8000   11.7820 C   0  0  0  0  0  0  0  0  0  0  0  0
   30.6070   23.2870   10.8980 N   0  0  0  0  0  0  0  0  0  0  0  0
   30.4700   21.9510   10.8280 C   0  0  0  0  0  0  0  0  0  0  0  0
   29.4700   21.6000    9.8220 C   0  0  0  0  0  0  0  0  0  0  0  0
   28.7360   22.5160    9.3780 O   0  0  0  0  0  0  0  0  0  0  0  0
   29.2660   20.2800    9.3050 N   0  0  0  0  0  0  0  0  0  0  0  0
   28.1000   20.0620    8.4270 C   0  0  1  0  0  0  0  0  0  0  0  0
   28.3260   20.6100    7.0310 C   0  0  0  0  0  0  0  0  0  0  0  0
   23.7113   19.9629    6.3184 H   0  0  0  0  0  0  0  0  0  0  0  0
   24.5647   19.0673    5.0159 H   0  0  0  0  0  0  0  0  0  0  0  0
   22.7708   19.1593    5.0159 H   0  0  0  0  0  0  0  0  0  0  0  0
   25.6379   19.3673    7.2801 H   0  0  0  0  0  0  0  0  0  0  0  0
   29.9797   16.1619    9.7653 H   0  0  0  0  0  0  0  0  0  0  0  0
   30.9379   19.1450    8.8759 H   0  0  0  0  0  0  0  0  0  0  0  0
   29.9043   18.1936   11.3302 H   0  0  0  0  0  0  0  0  0  0  0  0
   31.5889   18.2951   10.4274 H   0  0  0  0  0  0  0  0  0  0  0  0
   32.7110   20.9420   13.1771 H   0  0  0  0  0  0  0  0  0  0  0  0
   32.9744   23.4388   13.3171 H   0  0  0  0  0  0  0  0  0  0  0  0
   31.6146   24.8917   11.8457 H   0  0  0  0  0  0  0  0  0  0  0  0
   27.1810   20.5903    8.7208 H   0  0  0  0  0  0  0  0  0  0  0  0
   28.7446   21.6250    7.0988 H   0  0  0  0  0  0  0  0  0  0  0  0
   29.0290   19.9588    6.4908 H   0  0  0  0  0  0  0  0  0  0  0  0
   27.3684   20.6437    6.4908 H   0  0  0  0  0  0  0  0  0  0  0  0
  1  2  1  0
  2  3  1  0
  3  4  2  0
  4  5  1  0
  5  6  2  0
  6  7  1  0
  7  8  2  0
  8  9  1  0
  9 10  2  0
 10 11  1  0
 11 12  1  0
 11 13  2  0
 13 14  1  0
  7 15  1  0
 15 16  1  0
 16 17  1  0
 17 18  1  0
 18 19  2  0
 19 20  1  0
 20 21  2  0
 21 22  1  0
 22 23  2  0
 23 24  1  0
 24 25  2  0
 24 26  1  0
 26 27  1  0
 27 28  1  0
 13  3  1  0
 26 15  1  0
 10  5  1  0
 23 18  1  0
 27  6  1  0
  1 29  1  0
  1 30  1  0
  1 31  1  0
  4 32  1  0
  8 33  1  0
 15 34  1  6
 16 35  1  0
 16 36  1  0
 19 37  1  0
 20 38  1  0
 21 39  1  0
 27 40  1  1
 28 41  1  0
 28 42  1  0
 28 43  1  0
M  END
>  <primary_vina>  (1) 
-6.95163639029765

>  <rescore>  (1) 
-5.561309112238121

>  <core_rmsd>  (1) 
0.023322708904743195

>  <mapping_index>  (1) 
0

>  <conformer_index>  (1) 
8

$$$$
