
     RDKit          3D

 43 47  0  0  0  0  0  0  0  0999 V2000
   23.5222   19.0800    5.6634 C   0  0  0  0  0  0  0  0  0  0  0  0
   23.5800   17.9070    6.4600 O   0  0  0  0  0  0  0  0  0  0  0  0
   24.7360   17.4390    7.0570 C   0  0  0  0  0  0  0  0  0  0  0  0
   25.7230   18.2890    7.4710 C   0  0  0  0  0  0  0  0  0  0  0  0
   26.8830   17.7620    8.0750 C   0  0  0  0  0  0  0  0  0  0  0  0
   27.9340   18.5720    8.5410 C   0  0  0  0  0  0  0  0  0  0  0  0
   29.0290   17.9840    9.1390 C   0  0  0  0  0  0  0  0  0  0  0  0
   29.0910   16.5960    9.2710 C   0  0  0  0  0  0  0  0  0  0  0  0
   28.1340   15.8130    8.8470 N   0  0  0  0  0  0  0  0  0  0  0  0
   27.0320   16.3660    8.2530 C   0  0  0  0  0  0  0  0  0  0  0  0
   25.9940   15.5280    7.8120 C   0  0  0  0  0  0  0  0  0  0  0  0
   26.1310   14.1830    7.9810 F   0  0  0  0  0  0  0  0  0  0  0  0
   24.8730   16.0730    7.2270 C   0  0  0  0  0  0  0  0  0  0  0  0
   23.6130   14.9970    6.6960 Cl  0  0  0  0  0  0  0  0  0  0  0  0
   29.9540   19.0380    9.5960 C   0  0  1  0  0  0  0  0  0  0  0  0
   31.3670   18.8120    9.2730 C   0  0  0  0  0  0  0  0  0  0  0  0
   32.3170   19.5810    9.9210 O   0  0  0  0  0  0  0  0  0  0  0  0
   32.2750   20.9570   10.1470 C   0  0  0  0  0  0  0  0  0  0  0  0
   33.4560   21.4500   10.6900 C   0  0  0  0  0  0  0  0  0  0  0  0
   33.5770   22.8070   10.9760 C   0  0  0  0  0  0  0  0  0  0  0  0
   32.5720   23.6950   10.7440 C   0  0  0  0  0  0  0  0  0  0  0  0
   31.4210   23.1990   10.2120 N   0  0  0  0  0  0  0  0  0  0  0  0
   31.2780   21.8920    9.9270 C   0  0  0  0  0  0  0  0  0  0  0  0
   29.9430   21.5750    9.3560 C   0  0  0  0  0  0  0  0  0  0  0  0
   29.2550   22.5850    9.0150 O   0  0  0  0  0  0  0  0  0  0  0  0
   29.3630   20.2870    9.1530 N   0  0  0  0  0  0  0  0  0  0  0  0
   28.0790   20.0770    8.4600 C   0  0  1  0  0  0  0  0  0  0  0  0
   28.3180   20.5800    7.0220 C   0  0  0  0  0  0  0  0  0  0  0  0
   23.4786   19.9646    6.3158 H   0  0  0  0  0  0  0  0  0  0  0  0
   24.4186   19.1365    5.0284 H   0  0  0  0  0  0  0  0  0  0  0  0
   22.6245   19.0481    5.0284 H   0  0  0  0  0  0  0  0  0  0  0  0
   25.6133   19.3749    7.3342 H   0  0  0  0  0  0  0  0  0  0  0  0
   29.9744   16.1460    9.7476 H   0  0  0  0  0  0  0  0  0  0  0  0
   30.0475   19.0484   10.6920 H   0  0  0  0  0  0  0  0  0  0  0  0
   31.5892   17.7590    9.5007 H   0  0  0  0  0  0  0  0  0  0  0  0
   31.4549   19.1039    8.2161 H   0  0  0  0  0  0  0  0  0  0  0  0
   34.2947   20.7680   10.8936 H   0  0  0  0  0  0  0  0  0  0  0  0
   34.5202   23.1754   11.4056 H   0  0  0  0  0  0  0  0  0  0  0  0
   32.6845   24.7644   10.9757 H   0  0  0  0  0  0  0  0  0  0  0  0
   27.1845   20.5822    8.8532 H   0  0  0  0  0  0  0  0  0  0  0  0
   28.7899   21.5731    7.0546 H   0  0  0  0  0  0  0  0  0  0  0  0
   28.9785   19.8774    6.4928 H   0  0  0  0  0  0  0  0  0  0  0  0
   27.3561   20.6483    6.4928 H   0  0  0  0  0  0  0  0  0  0  0  0
  1  2  1  0
  2  3  1  0
  3  4  2  0
  4  5  1  0
  5  6  2  0
  6  7  1  0
  7  8  2  0
  8  9  1  0
  9 10  2  0
 10 11  1  0
 11 12  1  0
 11 13  2  0
 13 14  1  0
  7 15  1  0
 15 16  1  0
 16 17  1  0
 17 18  1  0
 18 19  2  0
 19 20  1  0
 20 21  2  0
 21 22  1  0
 22 23  2  0
 23 24  1  0
 24 25  2  0
 24 26  1  0
 26 27  1  0
 27 28  1  0
 13  3  1  0
 26 15  1  0
 10  5  1  0
 23 18  1  0
 27  6  1  0
  1 29  1  0
  1 30  1  0
  1 31  1  0
  4 32  1  0
  8 33  1  0
 15 34  1  1
 16 35  1  0
 16 36  1  0
 19 37  1  0
 20 38  1  0
 21 39  1  0
 27 40  1  1
 28 41  1  0
 28 42  1  0
 28 43  1  0
M  END
>  <primary_vina>  (1) 
-7.466098285205942

>  <rescore>  (1) 
14612821.027121373

>  <core_rmsd>  (1) 
0.07323770225048065

>  <mapping_index>  (1) 
0

>  <conformer_index>  (1) 
11

$$$$
