mol_gmx.pdb
 OpenBabel02072513223D

 38 41  0  0  1  0  0  0  0  0999 V2000
   24.7700   17.0650    7.2360 C   0  0  0  0  0  0  0  0  0  0  0  0
   28.3060   15.8170    9.1500 N   0  0  0  0  0  0  0  0  0  0  0  0
   25.7530   18.0290    7.6290 C   0  0  0  0  0  0  0  0  0  0  0  0
   29.3310   20.3810    9.2320 N   0  0  0  0  0  0  0  0  0  0  0  0
   28.9240   22.5960    9.2790 O   0  0  0  0  0  0  0  0  0  0  0  0
   26.9610   17.6340    8.2440 C   0  0  0  0  0  0  0  0  0  0  0  0
   31.1920   23.2520   10.6070 O   0  0  0  0  0  0  0  0  0  0  0  0
   27.9930   18.5290    8.6230 C   0  0  0  0  0  0  0  0  0  0  0  0
   29.1060   18.0530    9.3000 C   0  0  0  0  0  0  0  0  0  0  0  0
   29.2380   16.6900    9.5600 C   0  0  0  0  0  0  0  0  0  0  0  0
   27.1860   16.2510    8.5150 C   0  0  0  0  0  0  0  0  0  0  0  0
   26.2240   15.2960    8.1160 C   0  0  0  0  0  0  0  0  0  0  0  0
   25.0310   15.6930    7.4800 C   0  0  0  0  0  0  0  0  0  0  0  0
   30.0290   19.1690    9.6950 C   0  0  0  0  0  0  0  0  0  0  0  0
   29.6360   21.6440    9.6000 C   0  0  0  0  0  0  0  0  0  0  0  0
   30.9150   21.8730   10.4320 C   0  0  0  0  0  0  0  0  0  0  0  0
   23.8790   14.4910    6.9970 Cl  0  0  0  0  0  0  0  0  0  0  0  0
   28.1370   20.0310    8.4320 C   0  0  2  0  0  0  0  0  0  0  0  0
   26.5070   13.6090    8.4110 Cl  0  0  0  0  0  0  0  0  0  0  0  0
   23.6710   17.6780    6.6500 N   0  0  0  0  0  0  0  0  0  0  0  0
   28.3540   20.4160    6.9560 C   0  0  0  0  0  0  0  0  0  0  0  0
   25.1820   19.2440    7.2660 N   0  0  0  0  0  0  0  0  0  0  0  0
   32.4390   23.4150   11.4240 C   0  0  0  0  0  0  0  0  0  0  0  0
   23.9950   18.9630    6.7100 C   0  0  0  0  0  0  0  0  0  0  0  0
   30.8110   21.4120   11.4130 H   0  0  0  0  0  0  0  0  0  0  0  0
   31.7650   21.4070    9.9330 H   0  0  0  0  0  0  0  0  0  0  0  0
   30.0710   16.2750   10.0920 H   0  0  0  0  0  0  0  0  0  0  0  0
   30.1690   19.1650   10.7770 H   0  0  0  0  0  0  0  0  0  0  0  0
   27.2530   20.5230    8.8430 H   0  0  0  0  0  0  0  0  0  0  0  0
   30.9960   19.0580    9.2020 H   0  0  0  0  0  0  0  0  0  0  0  0
   28.4450   21.4930    6.8350 H   0  0  0  0  0  0  0  0  0  0  0  0
   29.2380   19.9480    6.5440 H   0  0  0  0  0  0  0  0  0  0  0  0
   27.5360   20.1150    6.3060 H   0  0  0  0  0  0  0  0  0  0  0  0
   32.6510   24.4750   11.5580 H   0  0  0  0  0  0  0  0  0  0  0  0
   32.2990   22.9470   12.3990 H   0  0  0  0  0  0  0  0  0  0  0  0
   33.2750   22.9400   10.9110 H   0  0  0  0  0  0  0  0  0  0  0  0
   25.5430   20.1800    7.3780 H   0  0  0  0  0  0  0  0  0  0  0  0
   23.3370   19.7340    6.3340 H   0  0  0  0  0  0  0  0  0  0  0  0
  1  3  2  0  0  0  0
  1 13  1  0  0  0  0
  1 20  1  0  0  0  0
  2 10  2  0  0  0  0
  2 11  1  0  0  0  0
  3  6  1  0  0  0  0
  3 22  1  0  0  0  0
  4 14  1  0  0  0  0
  4 15  1  0  0  0  0
  4 18  1  0  0  0  0
  5 15  2  0  0  0  0
  6  8  1  0  0  0  0
  6 11  2  0  0  0  0
  7 16  1  0  0  0  0
  7 23  1  0  0  0  0
  8  9  2  0  0  0  0
  8 18  1  0  0  0  0
  9 10  1  0  0  0  0
  9 14  1  0  0  0  0
 10 27  1  0  0  0  0
 11 12  1  0  0  0  0
 12 13  2  0  0  0  0
 12 19  1  0  0  0  0
 13 17  1  0  0  0  0
 14 28  1  0  0  0  0
 14 30  1  0  0  0  0
 15 16  1  0  0  0  0
 16 25  1  0  0  0  0
 16 26  1  0  0  0  0
 18 21  1  0  0  0  0
 18 29  1  1  0  0  0
 20 24  2  0  0  0  0
 21 31  1  0  0  0  0
 21 32  1  0  0  0  0
 21 33  1  0  0  0  0
 22 24  1  0  0  0  0
 22 37  1  0  0  0  0
 23 34  1  0  0  0  0
 23 35  1  0  0  0  0
 23 36  1  0  0  0  0
 24 38  1  0  0  0  0
M  END
>  <TITLE>
    mol_gmx_old

>  <REMARK>
   4      COMPLIES WITH FORMAT V. 3.0, 1-DEC-2006
 888
 888 WRITTEN BY MAESTRO (A PRODUCT OF SCHRODINGER, LLC)

$$$$
